version 2
1
9
.tran 5 5{return}.kicad adjustpaths{return}.save all{return}.probe alli
3
2
I(C1)
 
1
V(Net-_Q1-B_)
 
1
V(Net-_Q1-C_)
 
